artifacts/measurements/out_measurements_parameter_topology_physical_preview/cases_parameter_error/case_param_topology_err_714596481058.m
function mpc = case_param_topology_err_714596481058
mpc.version = '2';
mpc.baseMVA = 100;

mpc.bus = [
    1 3 0 0 0 0 1 1.06 0 135 1 2 0 0 0 0 0 0;
    2 2 21.7 12.7 0 0 1 1.045 -35.5606918235 135 1 2 0 0 0 0 0 0;
    3 2 94.2 19 0 0 1 1.01 -40.4509675313 135 1 2 0 0 0 0 0 0;
    4 1 47.8 -3.9 0 0 1 1.01418653205 -35.1890280812 135 1 2 0 0 0 0 0 0;
    5 1 7.6 1.6 0 0 1 1.00964270493 -31.590286545 135 1 2 0 0 0 0 0 0;
    6 2 11.2 7.5 0 0 1 1.07 -38.2258851421 0.208 1 2 0 0 0 0 0 0;
    7 1 0 0 0 0 1 1.04849370058 -37.9837615094 14 1 2 0 0 0 0 0 0;
    8 2 0 0 0 0 1 1.09 -37.9837615094 12 1 2 0 0 0 0 0 0;
    9 1 29.5 16.6 0 19 1 1.04157913963 -39.4148796319 0.208 1 2 0 0 0 0 0 0;
    10 1 9 5.8 0 0 1 1.0389462458 -39.4878397934 0.208 1 2 0 0 0 0 0 0;
    11 1 3.5 1.8 0 0 1 1.05060042261 -38.9829132285 0.208 1 2 0 0 0 0 0 0;
    12 1 6.1 1.6 0 0 1 1.06695130386 -38.4781719122 0.208 1 2 0 0 0 0 0 0;
    13 1 13.5 5.8 0 0 1 1.05086452244 -38.9892139889 0.208 1 2 0 0 0 0 0 0;
    14 1 14.9 5 0 0 1 1.02743469512 -40.2414695815 0.208 1 2 0 0 0 0 0 0;
];

mpc.gen = [
    1 259.170142117 29.48981611 0 0 1.06 1 1 1000000000 -1000000000 0 0 0 0 0 0 0 0 0 0 0 0 0 0 0 1;
    2 40 66.2545303106 1000000000 -1000000000 1.045 nan 1 1000000000 -1000000000 0 0 0 0 0 0 0 0 0 0 0 0 0 0 0 0;
    3 0 29.9598298073 2000000000 -2000000000 1.01 nan 1 2000000000 -2000000000 0 0 0 0 0 0 0 0 0 0 0 0 0 0 0 0;
    6 0 52.5967612267 1000000000 -1000000000 1.07 nan 1 1000000000 -1000000000 0 0 0 0 0 0 0 0 0 0 0 0 0 0 0 0;
    8 0 25.6837165356 1000000000 -1000000000 1.09 nan 1 1000000000 -1000000000 0 0 0 0 0 0 0 0 0 0 0 0 0 0 0 0;
];

mpc.branch = [
    1 5 0.05403 0.22304 0.0492 100 0 0 0 0 1 -360 360 259.170142117 29.48981611 -226.370587782 100.637542721 0 0 0 0 0;
    2 3 0.04699 0.19797 0.0438 100 0 0 0 0 1 -360 360 47.6121394395 6.72304173084 -46.6009346371 -7.0883653314 0 0 0 0 0;
    2 4 0.05811 0.17632 0.034 100 0 0 0 0 1 -360 360 1.91577364792 15.7871121275 -1.748170999 -18.8835834086 0 0 0 0 0;
    2 5 0.05695 0.17388 0.0346 100 0 0 0 0 1 -360 360 -31.2279130874 31.0443764844 32.3021173771 -31.4173389104 0 0 0 0 0;
    3 4 0.06701 0.17103 0.0128 100 0 0 0 0 1 -360 360 -47.5990653629 18.0481951836 49.3171125813 -14.9743651682 0 0 0 0 0;
    4 5 0.01335 0.04211 0 100 0 0 0 0 1 -360 360 -134.157833498 58.2700312298 136.93455237 -49.5114071324 0 0 0 0 0;
    4 7 0 0.20912 -0 100 0 0 0 0 1 -360 360 24.7932593751 -16.033436772 -24.7932593751 17.8058508955 0 0 0 0 0;
    4 9 0 0.55618 -0 100 0 0 0 0 1 -360 360 13.995632541 -4.47864588105 -13.995632541 5.64627452453 0 0 0 0 0;
    5 6 0 0.25202 -0 100 0 0 0 0 1 -360 360 49.5339180345 -21.3087966777 -49.5339180345 28.4974125061 0 0 0 0 0;
    6 11 0.09498 0.1989 0 100 0 0 0 0 1 -360 360 10.1580459832 5.63476980135 -10.0461037043 -5.40034866762 0 0 0 0 0;
    6 12 0.0153940050014 0.0434225978389 0 100 0 0 0 0 1 -360 360 12.658087048 3.05045223898 -12.6352921924 -2.98615371178 0 0 0 0 0;
    6 13 0.06615 0.13027 0 100 0 0 0 0 1 -360 360 15.5177850033 7.91412665574 -15.3424663842 -7.56886956568 0 0 0 0 0;
    7 8 0 0.17615 -0 100 0 0 0 0 1 -360 360 4.91009510185e-14 -24.7057016585 -5.15606582003e-14 25.6837163569 0 0 0 0 0;
    7 9 0 0.11001 -0 100 0 0 0 0 1 -360 360 24.7932593751 6.89985076306 -24.7932593751 -6.23707866015 0 0 0 0 0;
    9 10 0.03181 0.0845 0 100 0 0 0 0 1 -360 360 2.49877624335 2.30577980264 -2.49538658552 -2.29677552452 0 0 0 0 0;
    9 14 0.12711 0.27038 0 100 0 0 0 0 1 -360 360 6.7901156728 2.29787931102 -6.72990973718 -2.16981321967 0 0 0 0 0;
    10 11 0.08205 0.19207 0 100 0 0 0 0 1 -360 360 -6.50461341448 -3.50322447548 6.5461037043 3.60034866762 0 0 0 0 0;
    12 13 0.22092 0.19988 0 100 0 0 0 0 1 -360 360 6.53529219241 1.38615371178 -6.44867841264 -1.30778886342 0 0 0 0 0;
    13 14 0.17093 0.34802 0 100 0 0 0 0 1 -360 360 8.29114479682 3.0766584291 -8.17009026281 -2.83018678033 0 0 0 0 0;
];

